# generated using pymatgen
data_Mn2O2F9
_symmetry_space_group_name_H-M   C2/c
_cell_length_a   17.73122200
_cell_length_b   8.73109000
_cell_length_c   9.31976569
_cell_angle_alpha   90.00000000
_cell_angle_beta   100.25399748
_cell_angle_gamma   90.00000000
_symmetry_Int_Tables_number   15
_chemical_formula_structural   Mn2O2F9
_chemical_formula_sum   'Mn16 O16 F72'
_cell_volume   1419.77559217
_cell_formula_units_Z   8
loop_
 _symmetry_equiv_pos_site_id
 _symmetry_equiv_pos_as_xyz
  1  'x, y, z'
  2  'x, y, z'
  3  '-x, -y, -z'
  4  '-x, -y, -z'
  5  '-x, y, -z+1/2'
  6  '-x, y, -z+1/2'
  7  'x, -y, z+1/2'
  8  'x, -y, z+1/2'
  9  'x+1/2, y+1/2, z'
  10  'x+1/2, y+1/2, z'
  11  '-x+1/2, -y+1/2, -z'
  12  '-x+1/2, -y+1/2, -z'
  13  '-x+1/2, y+1/2, -z+1/2'
  14  '-x+1/2, y+1/2, -z+1/2'
  15  'x+1/2, -y+1/2, z+1/2'
  16  'x+1/2, -y+1/2, z+1/2'
loop_
 _atom_site_type_symbol
 _atom_site_label
 _atom_site_symmetry_multiplicity
 _atom_site_fract_x
 _atom_site_fract_y
 _atom_site_fract_z
 _atom_site_occupancy
  Mn  Mn0  8  0.07653450  0.24581150  0.55644900  1
  Mn  Mn1  8  0.12414300  0.13460700  0.93835200  1
  O  O2  8  0.18886300  0.45683900  0.21720200  1
  O  O3  8  0.19058350  0.37766450  0.31908000  1
  F  F4  8  0.03391800  0.24467200  0.97773700  1
  F  F5  8  0.06780000  0.05517600  0.45174400  1
  F  F6  8  0.07390250  0.34319150  0.38474000  1
  F  F7  8  0.07408350  0.42539050  0.65113900  1
  F  F8  8  0.07496700  0.13328400  0.73193800  1
  F  F9  8  0.15929450  0.12792950  0.12783300  1
  F  F10  8  0.16739600  0.31309000  0.91637900  1
  F  F11  8  0.17834100  0.24150200  0.58950700  1
  F  F12  8  0.20254250  0.02459550  0.89635500  1
